* NGSPICE file created from power_stage.ext - technology: sky130A

.subckt nmos_waffle_36x36 w_n1200_n1200# a_n50_n50# a_112_3350# a_112_1150#
X0 w_n1200_n1200# a_n50_n50# a_112_3350# w_n1200_n1200# sky130_fd_pr__nfet_g5v0d10v5 ad=8.80377e+15p pd=2.14718e+10u as=3.49194e+15p ps=2.36764e+10u w=4.38e+06u l=500000u
X1 w_n1200_n1200# a_n50_n50# a_112_3350# w_n1200_n1200# sky130_fd_pr__nfet_g5v0d10v5 ad=0p pd=0u as=0p ps=0u w=4.38e+06u l=500000u
X2 a_112_3350# a_n50_n50# w_n1200_n1200# w_n1200_n1200# sky130_fd_pr__nfet_g5v0d10v5 ad=0p pd=0u as=0p ps=0u w=4.38e+06u l=500000u
X3 a_112_3350# a_n50_n50# w_n1200_n1200# w_n1200_n1200# sky130_fd_pr__nfet_g5v0d10v5 ad=0p pd=0u as=0p ps=0u w=4.38e+06u l=500000u
X4 w_n1200_n1200# a_n50_n50# a_112_3350# w_n1200_n1200# sky130_fd_pr__nfet_g5v0d10v5 ad=0p pd=0u as=0p ps=0u w=4.38e+06u l=500000u
X5 a_112_3350# a_n50_n50# w_n1200_n1200# w_n1200_n1200# sky130_fd_pr__nfet_g5v0d10v5 ad=0p pd=0u as=0p ps=0u w=4.38e+06u l=500000u
X6 w_n1200_n1200# a_n50_n50# a_112_3350# w_n1200_n1200# sky130_fd_pr__nfet_g5v0d10v5 ad=0p pd=0u as=0p ps=0u w=4.38e+06u l=500000u
X7 a_112_3350# a_n50_n50# w_n1200_n1200# w_n1200_n1200# sky130_fd_pr__nfet_g5v0d10v5 ad=0p pd=0u as=0p ps=0u w=4.38e+06u l=500000u
X8 a_112_3350# a_n50_n50# w_n1200_n1200# w_n1200_n1200# sky130_fd_pr__nfet_g5v0d10v5 ad=0p pd=0u as=0p ps=0u w=4.38e+06u l=500000u
X9 w_n1200_n1200# a_n50_n50# a_112_3350# w_n1200_n1200# sky130_fd_pr__nfet_g5v0d10v5 ad=0p pd=0u as=0p ps=0u w=4.38e+06u l=500000u
X10 w_n1200_n1200# a_n50_n50# a_112_3350# w_n1200_n1200# sky130_fd_pr__nfet_g5v0d10v5 ad=0p pd=0u as=0p ps=0u w=4.38e+06u l=500000u
X11 w_n1200_n1200# a_n50_n50# a_112_3350# w_n1200_n1200# sky130_fd_pr__nfet_g5v0d10v5 ad=0p pd=0u as=0p ps=0u w=4.38e+06u l=500000u
X12 a_112_3350# a_n50_n50# w_n1200_n1200# w_n1200_n1200# sky130_fd_pr__nfet_g5v0d10v5 ad=0p pd=0u as=0p ps=0u w=4.38e+06u l=500000u
X13 a_112_3350# a_n50_n50# w_n1200_n1200# w_n1200_n1200# sky130_fd_pr__nfet_g5v0d10v5 ad=0p pd=0u as=0p ps=0u w=4.38e+06u l=500000u
X14 w_n1200_n1200# a_n50_n50# a_112_3350# w_n1200_n1200# sky130_fd_pr__nfet_g5v0d10v5 ad=0p pd=0u as=0p ps=0u w=4.38e+06u l=500000u
X15 a_112_3350# a_n50_n50# w_n1200_n1200# w_n1200_n1200# sky130_fd_pr__nfet_g5v0d10v5 ad=0p pd=0u as=0p ps=0u w=4.38e+06u l=500000u
X16 w_n1200_n1200# a_n50_n50# a_112_3350# w_n1200_n1200# sky130_fd_pr__nfet_g5v0d10v5 ad=0p pd=0u as=0p ps=0u w=4.38e+06u l=500000u
X17 a_112_3350# a_n50_n50# w_n1200_n1200# w_n1200_n1200# sky130_fd_pr__nfet_g5v0d10v5 ad=0p pd=0u as=0p ps=0u w=4.38e+06u l=500000u
X18 w_n1200_n1200# a_n50_n50# a_112_3350# w_n1200_n1200# sky130_fd_pr__nfet_g5v0d10v5 ad=0p pd=0u as=0p ps=0u w=4.38e+06u l=500000u
X19 w_n1200_n1200# a_n50_n50# a_112_3350# w_n1200_n1200# sky130_fd_pr__nfet_g5v0d10v5 ad=0p pd=0u as=0p ps=0u w=4.38e+06u l=500000u
X20 w_n1200_n1200# a_n50_n50# a_112_3350# w_n1200_n1200# sky130_fd_pr__nfet_g5v0d10v5 ad=0p pd=0u as=0p ps=0u w=4.38e+06u l=500000u
X21 a_112_3350# a_n50_n50# w_n1200_n1200# w_n1200_n1200# sky130_fd_pr__nfet_g5v0d10v5 ad=0p pd=0u as=0p ps=0u w=4.38e+06u l=500000u
X22 a_112_3350# a_n50_n50# w_n1200_n1200# w_n1200_n1200# sky130_fd_pr__nfet_g5v0d10v5 ad=0p pd=0u as=0p ps=0u w=4.38e+06u l=500000u
X23 w_n1200_n1200# a_n50_n50# a_112_3350# w_n1200_n1200# sky130_fd_pr__nfet_g5v0d10v5 ad=0p pd=0u as=0p ps=0u w=4.38e+06u l=500000u
X24 a_112_3350# a_n50_n50# w_n1200_n1200# w_n1200_n1200# sky130_fd_pr__nfet_g5v0d10v5 ad=0p pd=0u as=0p ps=0u w=4.38e+06u l=500000u
X25 w_n1200_n1200# a_n50_n50# a_112_3350# w_n1200_n1200# sky130_fd_pr__nfet_g5v0d10v5 ad=0p pd=0u as=0p ps=0u w=4.38e+06u l=500000u
X26 a_112_3350# a_n50_n50# w_n1200_n1200# w_n1200_n1200# sky130_fd_pr__nfet_g5v0d10v5 ad=0p pd=0u as=0p ps=0u w=4.38e+06u l=500000u
X27 w_n1200_n1200# a_n50_n50# a_112_3350# w_n1200_n1200# sky130_fd_pr__nfet_g5v0d10v5 ad=0p pd=0u as=0p ps=0u w=4.38e+06u l=500000u
X28 w_n1200_n1200# a_n50_n50# a_112_3350# w_n1200_n1200# sky130_fd_pr__nfet_g5v0d10v5 ad=0p pd=0u as=0p ps=0u w=4.38e+06u l=500000u
X29 w_n1200_n1200# a_n50_n50# a_112_3350# w_n1200_n1200# sky130_fd_pr__nfet_g5v0d10v5 ad=0p pd=0u as=0p ps=0u w=4.38e+06u l=500000u
X30 a_112_3350# a_n50_n50# w_n1200_n1200# w_n1200_n1200# sky130_fd_pr__nfet_g5v0d10v5 ad=0p pd=0u as=0p ps=0u w=4.38e+06u l=500000u
X31 a_112_3350# a_n50_n50# w_n1200_n1200# w_n1200_n1200# sky130_fd_pr__nfet_g5v0d10v5 ad=0p pd=0u as=0p ps=0u w=4.38e+06u l=500000u
X32 w_n1200_n1200# a_n50_n50# a_112_3350# w_n1200_n1200# sky130_fd_pr__nfet_g5v0d10v5 ad=0p pd=0u as=0p ps=0u w=4.38e+06u l=500000u
X33 w_n1200_n1200# a_n50_n50# a_112_3350# w_n1200_n1200# sky130_fd_pr__nfet_g5v0d10v5 ad=0p pd=0u as=0p ps=0u w=4.38e+06u l=500000u
X34 a_112_3350# a_n50_n50# w_n1200_n1200# w_n1200_n1200# sky130_fd_pr__nfet_g5v0d10v5 ad=0p pd=0u as=0p ps=0u w=4.38e+06u l=500000u
X35 a_112_3350# a_n50_n50# w_n1200_n1200# w_n1200_n1200# sky130_fd_pr__nfet_g5v0d10v5 ad=0p pd=0u as=0p ps=0u w=4.38e+06u l=500000u
X36 w_n1200_n1200# a_n50_n50# a_112_3350# w_n1200_n1200# sky130_fd_pr__nfet_g5v0d10v5 ad=0p pd=0u as=0p ps=0u w=4.38e+06u l=500000u
X37 w_n1200_n1200# a_n50_n50# a_112_3350# w_n1200_n1200# sky130_fd_pr__nfet_g5v0d10v5 ad=0p pd=0u as=0p ps=0u w=4.38e+06u l=500000u
X38 a_112_3350# a_n50_n50# w_n1200_n1200# w_n1200_n1200# sky130_fd_pr__nfet_g5v0d10v5 ad=0p pd=0u as=0p ps=0u w=4.38e+06u l=500000u
X39 w_n1200_n1200# a_n50_n50# a_112_3350# w_n1200_n1200# sky130_fd_pr__nfet_g5v0d10v5 ad=0p pd=0u as=0p ps=0u w=4.38e+06u l=500000u
X40 w_n1200_n1200# a_n50_n50# a_112_3350# w_n1200_n1200# sky130_fd_pr__nfet_g5v0d10v5 ad=0p pd=0u as=0p ps=0u w=4.38e+06u l=500000u
X41 w_n1200_n1200# a_n50_n50# a_112_3350# w_n1200_n1200# sky130_fd_pr__nfet_g5v0d10v5 ad=0p pd=0u as=0p ps=0u w=4.38e+06u l=500000u
X42 a_112_3350# a_n50_n50# w_n1200_n1200# w_n1200_n1200# sky130_fd_pr__nfet_g5v0d10v5 ad=0p pd=0u as=0p ps=0u w=4.38e+06u l=500000u
X43 w_n1200_n1200# a_n50_n50# a_112_3350# w_n1200_n1200# sky130_fd_pr__nfet_g5v0d10v5 ad=0p pd=0u as=0p ps=0u w=4.38e+06u l=500000u
X44 w_n1200_n1200# a_n50_n50# a_112_3350# w_n1200_n1200# sky130_fd_pr__nfet_g5v0d10v5 ad=0p pd=0u as=0p ps=0u w=4.38e+06u l=500000u
X45 w_n1200_n1200# a_n50_n50# a_112_3350# w_n1200_n1200# sky130_fd_pr__nfet_g5v0d10v5 ad=0p pd=0u as=0p ps=0u w=4.38e+06u l=500000u
X46 a_112_3350# a_n50_n50# w_n1200_n1200# w_n1200_n1200# sky130_fd_pr__nfet_g5v0d10v5 ad=0p pd=0u as=0p ps=0u w=4.38e+06u l=500000u
X47 w_n1200_n1200# a_n50_n50# a_112_3350# w_n1200_n1200# sky130_fd_pr__nfet_g5v0d10v5 ad=0p pd=0u as=0p ps=0u w=4.38e+06u l=500000u
X48 a_112_3350# a_n50_n50# w_n1200_n1200# w_n1200_n1200# sky130_fd_pr__nfet_g5v0d10v5 ad=0p pd=0u as=0p ps=0u w=4.38e+06u l=500000u
X49 w_n1200_n1200# a_n50_n50# a_112_3350# w_n1200_n1200# sky130_fd_pr__nfet_g5v0d10v5 ad=0p pd=0u as=0p ps=0u w=4.38e+06u l=500000u
X50 a_112_3350# a_n50_n50# w_n1200_n1200# w_n1200_n1200# sky130_fd_pr__nfet_g5v0d10v5 ad=0p pd=0u as=0p ps=0u w=4.38e+06u l=500000u
X51 a_112_3350# a_n50_n50# w_n1200_n1200# w_n1200_n1200# sky130_fd_pr__nfet_g5v0d10v5 ad=0p pd=0u as=0p ps=0u w=4.38e+06u l=500000u
X52 w_n1200_n1200# a_n50_n50# a_112_3350# w_n1200_n1200# sky130_fd_pr__nfet_g5v0d10v5 ad=0p pd=0u as=0p ps=0u w=4.38e+06u l=500000u
X53 a_112_3350# a_n50_n50# w_n1200_n1200# w_n1200_n1200# sky130_fd_pr__nfet_g5v0d10v5 ad=0p pd=0u as=0p ps=0u w=4.38e+06u l=500000u
X54 w_n1200_n1200# a_n50_n50# a_112_3350# w_n1200_n1200# sky130_fd_pr__nfet_g5v0d10v5 ad=0p pd=0u as=0p ps=0u w=4.38e+06u l=500000u
X55 a_112_3350# a_n50_n50# w_n1200_n1200# w_n1200_n1200# sky130_fd_pr__nfet_g5v0d10v5 ad=0p pd=0u as=0p ps=0u w=4.38e+06u l=500000u
X56 a_112_3350# a_n50_n50# w_n1200_n1200# w_n1200_n1200# sky130_fd_pr__nfet_g5v0d10v5 ad=0p pd=0u as=0p ps=0u w=4.38e+06u l=500000u
X57 a_112_3350# a_n50_n50# w_n1200_n1200# w_n1200_n1200# sky130_fd_pr__nfet_g5v0d10v5 ad=0p pd=0u as=0p ps=0u w=4.38e+06u l=500000u
X58 w_n1200_n1200# a_n50_n50# a_112_3350# w_n1200_n1200# sky130_fd_pr__nfet_g5v0d10v5 ad=0p pd=0u as=0p ps=0u w=4.38e+06u l=500000u
X59 a_112_3350# a_n50_n50# w_n1200_n1200# w_n1200_n1200# sky130_fd_pr__nfet_g5v0d10v5 ad=0p pd=0u as=0p ps=0u w=4.38e+06u l=500000u
X60 a_112_3350# a_n50_n50# w_n1200_n1200# w_n1200_n1200# sky130_fd_pr__nfet_g5v0d10v5 ad=0p pd=0u as=0p ps=0u w=4.38e+06u l=500000u
X61 w_n1200_n1200# a_n50_n50# a_112_3350# w_n1200_n1200# sky130_fd_pr__nfet_g5v0d10v5 ad=0p pd=0u as=0p ps=0u w=4.38e+06u l=500000u
X62 a_112_3350# a_n50_n50# w_n1200_n1200# w_n1200_n1200# sky130_fd_pr__nfet_g5v0d10v5 ad=0p pd=0u as=0p ps=0u w=4.38e+06u l=500000u
X63 a_112_3350# a_n50_n50# w_n1200_n1200# w_n1200_n1200# sky130_fd_pr__nfet_g5v0d10v5 ad=0p pd=0u as=0p ps=0u w=4.38e+06u l=500000u
X64 a_112_3350# a_n50_n50# w_n1200_n1200# w_n1200_n1200# sky130_fd_pr__nfet_g5v0d10v5 ad=0p pd=0u as=0p ps=0u w=4.38e+06u l=500000u
X65 w_n1200_n1200# a_n50_n50# a_112_3350# w_n1200_n1200# sky130_fd_pr__nfet_g5v0d10v5 ad=0p pd=0u as=0p ps=0u w=4.38e+06u l=500000u
X66 a_112_3350# a_n50_n50# w_n1200_n1200# w_n1200_n1200# sky130_fd_pr__nfet_g5v0d10v5 ad=0p pd=0u as=0p ps=0u w=4.38e+06u l=500000u
X67 a_112_3350# a_n50_n50# w_n1200_n1200# w_n1200_n1200# sky130_fd_pr__nfet_g5v0d10v5 ad=0p pd=0u as=0p ps=0u w=4.38e+06u l=500000u
X68 w_n1200_n1200# a_n50_n50# a_112_3350# w_n1200_n1200# sky130_fd_pr__nfet_g5v0d10v5 ad=0p pd=0u as=0p ps=0u w=4.38e+06u l=500000u
X69 w_n1200_n1200# a_n50_n50# a_112_3350# w_n1200_n1200# sky130_fd_pr__nfet_g5v0d10v5 ad=0p pd=0u as=0p ps=0u w=4.38e+06u l=500000u
X70 a_112_3350# a_n50_n50# w_n1200_n1200# w_n1200_n1200# sky130_fd_pr__nfet_g5v0d10v5 ad=0p pd=0u as=0p ps=0u w=4.38e+06u l=500000u
X71 a_112_3350# a_n50_n50# w_n1200_n1200# w_n1200_n1200# sky130_fd_pr__nfet_g5v0d10v5 ad=0p pd=0u as=0p ps=0u w=4.38e+06u l=500000u
X72 a_112_3350# a_n50_n50# w_n1200_n1200# w_n1200_n1200# sky130_fd_pr__nfet_g5v0d10v5 ad=0p pd=0u as=0p ps=0u w=4.38e+06u l=500000u
X73 w_n1200_n1200# a_n50_n50# a_112_3350# w_n1200_n1200# sky130_fd_pr__nfet_g5v0d10v5 ad=0p pd=0u as=0p ps=0u w=4.38e+06u l=500000u
X74 w_n1200_n1200# a_n50_n50# a_112_3350# w_n1200_n1200# sky130_fd_pr__nfet_g5v0d10v5 ad=0p pd=0u as=0p ps=0u w=4.38e+06u l=500000u
X75 a_112_3350# a_n50_n50# w_n1200_n1200# w_n1200_n1200# sky130_fd_pr__nfet_g5v0d10v5 ad=0p pd=0u as=0p ps=0u w=4.38e+06u l=500000u
X76 a_112_3350# a_n50_n50# w_n1200_n1200# w_n1200_n1200# sky130_fd_pr__nfet_g5v0d10v5 ad=0p pd=0u as=0p ps=0u w=4.38e+06u l=500000u
X77 a_112_3350# a_n50_n50# w_n1200_n1200# w_n1200_n1200# sky130_fd_pr__nfet_g5v0d10v5 ad=0p pd=0u as=0p ps=0u w=4.38e+06u l=500000u
X78 w_n1200_n1200# a_n50_n50# a_112_3350# w_n1200_n1200# sky130_fd_pr__nfet_g5v0d10v5 ad=0p pd=0u as=0p ps=0u w=4.38e+06u l=500000u
X79 a_112_3350# a_n50_n50# w_n1200_n1200# w_n1200_n1200# sky130_fd_pr__nfet_g5v0d10v5 ad=0p pd=0u as=0p ps=0u w=4.38e+06u l=500000u
X80 a_112_3350# a_n50_n50# w_n1200_n1200# w_n1200_n1200# sky130_fd_pr__nfet_g5v0d10v5 ad=0p pd=0u as=0p ps=0u w=4.38e+06u l=500000u
X81 a_112_3350# a_n50_n50# w_n1200_n1200# w_n1200_n1200# sky130_fd_pr__nfet_g5v0d10v5 ad=0p pd=0u as=0p ps=0u w=4.38e+06u l=500000u
X82 a_112_3350# a_n50_n50# w_n1200_n1200# w_n1200_n1200# sky130_fd_pr__nfet_g5v0d10v5 ad=0p pd=0u as=0p ps=0u w=4.38e+06u l=500000u
X83 a_112_3350# a_n50_n50# w_n1200_n1200# w_n1200_n1200# sky130_fd_pr__nfet_g5v0d10v5 ad=0p pd=0u as=0p ps=0u w=4.38e+06u l=500000u
X84 a_112_3350# a_n50_n50# w_n1200_n1200# w_n1200_n1200# sky130_fd_pr__nfet_g5v0d10v5 ad=0p pd=0u as=0p ps=0u w=4.38e+06u l=500000u
X85 w_n1200_n1200# a_n50_n50# a_112_3350# w_n1200_n1200# sky130_fd_pr__nfet_g5v0d10v5 ad=0p pd=0u as=0p ps=0u w=4.38e+06u l=500000u
X86 a_112_3350# a_n50_n50# w_n1200_n1200# w_n1200_n1200# sky130_fd_pr__nfet_g5v0d10v5 ad=0p pd=0u as=0p ps=0u w=4.38e+06u l=500000u
X87 a_112_3350# a_n50_n50# w_n1200_n1200# w_n1200_n1200# sky130_fd_pr__nfet_g5v0d10v5 ad=0p pd=0u as=0p ps=0u w=4.38e+06u l=500000u
X88 w_n1200_n1200# a_n50_n50# a_112_3350# w_n1200_n1200# sky130_fd_pr__nfet_g5v0d10v5 ad=0p pd=0u as=0p ps=0u w=4.38e+06u l=500000u
X89 a_112_3350# a_n50_n50# w_n1200_n1200# w_n1200_n1200# sky130_fd_pr__nfet_g5v0d10v5 ad=0p pd=0u as=0p ps=0u w=4.38e+06u l=500000u
X90 w_n1200_n1200# a_n50_n50# a_112_3350# w_n1200_n1200# sky130_fd_pr__nfet_g5v0d10v5 ad=0p pd=0u as=0p ps=0u w=4.38e+06u l=500000u
X91 a_112_3350# a_n50_n50# w_n1200_n1200# w_n1200_n1200# sky130_fd_pr__nfet_g5v0d10v5 ad=0p pd=0u as=0p ps=0u w=4.38e+06u l=500000u
X92 a_112_3350# a_n50_n50# w_n1200_n1200# w_n1200_n1200# sky130_fd_pr__nfet_g5v0d10v5 ad=0p pd=0u as=0p ps=0u w=4.38e+06u l=500000u
X93 w_n1200_n1200# a_n50_n50# a_112_3350# w_n1200_n1200# sky130_fd_pr__nfet_g5v0d10v5 ad=0p pd=0u as=0p ps=0u w=4.38e+06u l=500000u
X94 w_n1200_n1200# a_n50_n50# a_112_3350# w_n1200_n1200# sky130_fd_pr__nfet_g5v0d10v5 ad=0p pd=0u as=0p ps=0u w=4.38e+06u l=500000u
X95 a_112_3350# a_n50_n50# w_n1200_n1200# w_n1200_n1200# sky130_fd_pr__nfet_g5v0d10v5 ad=0p pd=0u as=0p ps=0u w=4.38e+06u l=500000u
X96 a_112_3350# a_n50_n50# w_n1200_n1200# w_n1200_n1200# sky130_fd_pr__nfet_g5v0d10v5 ad=0p pd=0u as=0p ps=0u w=4.38e+06u l=500000u
X97 a_112_3350# a_n50_n50# w_n1200_n1200# w_n1200_n1200# sky130_fd_pr__nfet_g5v0d10v5 ad=0p pd=0u as=0p ps=0u w=4.38e+06u l=500000u
X98 w_n1200_n1200# a_n50_n50# a_112_3350# w_n1200_n1200# sky130_fd_pr__nfet_g5v0d10v5 ad=0p pd=0u as=0p ps=0u w=4.38e+06u l=500000u
X99 a_112_3350# a_n50_n50# w_n1200_n1200# w_n1200_n1200# sky130_fd_pr__nfet_g5v0d10v5 ad=0p pd=0u as=0p ps=0u w=4.38e+06u l=500000u
X100 w_n1200_n1200# a_n50_n50# a_112_3350# w_n1200_n1200# sky130_fd_pr__nfet_g5v0d10v5 ad=0p pd=0u as=0p ps=0u w=4.38e+06u l=500000u
X101 w_n1200_n1200# a_n50_n50# a_112_3350# w_n1200_n1200# sky130_fd_pr__nfet_g5v0d10v5 ad=0p pd=0u as=0p ps=0u w=4.38e+06u l=500000u
X102 w_n1200_n1200# a_n50_n50# a_112_3350# w_n1200_n1200# sky130_fd_pr__nfet_g5v0d10v5 ad=0p pd=0u as=0p ps=0u w=4.38e+06u l=500000u
X103 w_n1200_n1200# a_n50_n50# a_112_3350# w_n1200_n1200# sky130_fd_pr__nfet_g5v0d10v5 ad=0p pd=0u as=0p ps=0u w=4.38e+06u l=500000u
X104 a_112_3350# a_n50_n50# w_n1200_n1200# w_n1200_n1200# sky130_fd_pr__nfet_g5v0d10v5 ad=0p pd=0u as=0p ps=0u w=4.38e+06u l=500000u
X105 w_n1200_n1200# a_n50_n50# a_112_3350# w_n1200_n1200# sky130_fd_pr__nfet_g5v0d10v5 ad=0p pd=0u as=0p ps=0u w=4.38e+06u l=500000u
X106 a_112_3350# a_n50_n50# w_n1200_n1200# w_n1200_n1200# sky130_fd_pr__nfet_g5v0d10v5 ad=0p pd=0u as=0p ps=0u w=4.38e+06u l=500000u
X107 w_n1200_n1200# a_n50_n50# a_112_3350# w_n1200_n1200# sky130_fd_pr__nfet_g5v0d10v5 ad=0p pd=0u as=0p ps=0u w=4.38e+06u l=500000u
X108 w_n1200_n1200# a_n50_n50# a_112_3350# w_n1200_n1200# sky130_fd_pr__nfet_g5v0d10v5 ad=0p pd=0u as=0p ps=0u w=4.38e+06u l=500000u
X109 w_n1200_n1200# a_n50_n50# a_112_3350# w_n1200_n1200# sky130_fd_pr__nfet_g5v0d10v5 ad=0p pd=0u as=0p ps=0u w=4.38e+06u l=500000u
X110 w_n1200_n1200# a_n50_n50# a_112_3350# w_n1200_n1200# sky130_fd_pr__nfet_g5v0d10v5 ad=0p pd=0u as=0p ps=0u w=4.38e+06u l=500000u
X111 a_112_3350# a_n50_n50# w_n1200_n1200# w_n1200_n1200# sky130_fd_pr__nfet_g5v0d10v5 ad=0p pd=0u as=0p ps=0u w=4.38e+06u l=500000u
X112 w_n1200_n1200# a_n50_n50# a_112_3350# w_n1200_n1200# sky130_fd_pr__nfet_g5v0d10v5 ad=0p pd=0u as=0p ps=0u w=4.38e+06u l=500000u
X113 w_n1200_n1200# a_n50_n50# a_112_3350# w_n1200_n1200# sky130_fd_pr__nfet_g5v0d10v5 ad=0p pd=0u as=0p ps=0u w=4.38e+06u l=500000u
X114 a_112_3350# a_n50_n50# w_n1200_n1200# w_n1200_n1200# sky130_fd_pr__nfet_g5v0d10v5 ad=0p pd=0u as=0p ps=0u w=4.38e+06u l=500000u
X115 w_n1200_n1200# a_n50_n50# a_112_3350# w_n1200_n1200# sky130_fd_pr__nfet_g5v0d10v5 ad=0p pd=0u as=0p ps=0u w=4.38e+06u l=500000u
X116 w_n1200_n1200# a_n50_n50# a_112_3350# w_n1200_n1200# sky130_fd_pr__nfet_g5v0d10v5 ad=0p pd=0u as=0p ps=0u w=4.38e+06u l=500000u
X117 a_112_3350# a_n50_n50# w_n1200_n1200# w_n1200_n1200# sky130_fd_pr__nfet_g5v0d10v5 ad=0p pd=0u as=0p ps=0u w=4.38e+06u l=500000u
X118 a_112_3350# a_n50_n50# w_n1200_n1200# w_n1200_n1200# sky130_fd_pr__nfet_g5v0d10v5 ad=0p pd=0u as=0p ps=0u w=4.38e+06u l=500000u
X119 w_n1200_n1200# a_n50_n50# a_112_3350# w_n1200_n1200# sky130_fd_pr__nfet_g5v0d10v5 ad=0p pd=0u as=0p ps=0u w=4.38e+06u l=500000u
X120 w_n1200_n1200# a_n50_n50# a_112_3350# w_n1200_n1200# sky130_fd_pr__nfet_g5v0d10v5 ad=0p pd=0u as=0p ps=0u w=4.38e+06u l=500000u
X121 a_112_3350# a_n50_n50# w_n1200_n1200# w_n1200_n1200# sky130_fd_pr__nfet_g5v0d10v5 ad=0p pd=0u as=0p ps=0u w=4.38e+06u l=500000u
X122 w_n1200_n1200# a_n50_n50# a_112_3350# w_n1200_n1200# sky130_fd_pr__nfet_g5v0d10v5 ad=0p pd=0u as=0p ps=0u w=4.38e+06u l=500000u
X123 w_n1200_n1200# a_n50_n50# a_112_3350# w_n1200_n1200# sky130_fd_pr__nfet_g5v0d10v5 ad=0p pd=0u as=0p ps=0u w=4.38e+06u l=500000u
X124 a_112_3350# a_n50_n50# w_n1200_n1200# w_n1200_n1200# sky130_fd_pr__nfet_g5v0d10v5 ad=0p pd=0u as=0p ps=0u w=4.38e+06u l=500000u
X125 a_112_3350# a_n50_n50# w_n1200_n1200# w_n1200_n1200# sky130_fd_pr__nfet_g5v0d10v5 ad=0p pd=0u as=0p ps=0u w=4.38e+06u l=500000u
X126 a_112_3350# a_n50_n50# w_n1200_n1200# w_n1200_n1200# sky130_fd_pr__nfet_g5v0d10v5 ad=0p pd=0u as=0p ps=0u w=4.38e+06u l=500000u
X127 w_n1200_n1200# a_n50_n50# a_112_3350# w_n1200_n1200# sky130_fd_pr__nfet_g5v0d10v5 ad=0p pd=0u as=0p ps=0u w=4.38e+06u l=500000u
X128 w_n1200_n1200# a_n50_n50# a_112_3350# w_n1200_n1200# sky130_fd_pr__nfet_g5v0d10v5 ad=0p pd=0u as=0p ps=0u w=4.38e+06u l=500000u
X129 a_112_3350# a_n50_n50# w_n1200_n1200# w_n1200_n1200# sky130_fd_pr__nfet_g5v0d10v5 ad=0p pd=0u as=0p ps=0u w=4.38e+06u l=500000u
X130 a_112_3350# a_n50_n50# w_n1200_n1200# w_n1200_n1200# sky130_fd_pr__nfet_g5v0d10v5 ad=0p pd=0u as=0p ps=0u w=4.38e+06u l=500000u
X131 w_n1200_n1200# a_n50_n50# a_112_3350# w_n1200_n1200# sky130_fd_pr__nfet_g5v0d10v5 ad=0p pd=0u as=0p ps=0u w=4.38e+06u l=500000u
X132 w_n1200_n1200# a_n50_n50# a_112_3350# w_n1200_n1200# sky130_fd_pr__nfet_g5v0d10v5 ad=0p pd=0u as=0p ps=0u w=4.38e+06u l=500000u
X133 a_112_3350# a_n50_n50# w_n1200_n1200# w_n1200_n1200# sky130_fd_pr__nfet_g5v0d10v5 ad=0p pd=0u as=0p ps=0u w=4.38e+06u l=500000u
X134 w_n1200_n1200# a_n50_n50# a_112_3350# w_n1200_n1200# sky130_fd_pr__nfet_g5v0d10v5 ad=0p pd=0u as=0p ps=0u w=4.38e+06u l=500000u
X135 w_n1200_n1200# a_n50_n50# a_112_3350# w_n1200_n1200# sky130_fd_pr__nfet_g5v0d10v5 ad=0p pd=0u as=0p ps=0u w=4.38e+06u l=500000u
X136 a_112_3350# a_n50_n50# w_n1200_n1200# w_n1200_n1200# sky130_fd_pr__nfet_g5v0d10v5 ad=0p pd=0u as=0p ps=0u w=4.38e+06u l=500000u
X137 w_n1200_n1200# a_n50_n50# a_112_3350# w_n1200_n1200# sky130_fd_pr__nfet_g5v0d10v5 ad=0p pd=0u as=0p ps=0u w=4.38e+06u l=500000u
X138 w_n1200_n1200# a_n50_n50# a_112_3350# w_n1200_n1200# sky130_fd_pr__nfet_g5v0d10v5 ad=0p pd=0u as=0p ps=0u w=4.38e+06u l=500000u
X139 w_n1200_n1200# a_n50_n50# a_112_3350# w_n1200_n1200# sky130_fd_pr__nfet_g5v0d10v5 ad=0p pd=0u as=0p ps=0u w=4.38e+06u l=500000u
X140 a_112_3350# a_n50_n50# w_n1200_n1200# w_n1200_n1200# sky130_fd_pr__nfet_g5v0d10v5 ad=0p pd=0u as=0p ps=0u w=4.38e+06u l=500000u
X141 a_112_3350# a_n50_n50# w_n1200_n1200# w_n1200_n1200# sky130_fd_pr__nfet_g5v0d10v5 ad=0p pd=0u as=0p ps=0u w=4.38e+06u l=500000u
X142 w_n1200_n1200# a_n50_n50# a_112_3350# w_n1200_n1200# sky130_fd_pr__nfet_g5v0d10v5 ad=0p pd=0u as=0p ps=0u w=4.38e+06u l=500000u
X143 a_112_3350# a_n50_n50# w_n1200_n1200# w_n1200_n1200# sky130_fd_pr__nfet_g5v0d10v5 ad=0p pd=0u as=0p ps=0u w=4.38e+06u l=500000u
X144 a_112_3350# a_n50_n50# w_n1200_n1200# w_n1200_n1200# sky130_fd_pr__nfet_g5v0d10v5 ad=0p pd=0u as=0p ps=0u w=4.38e+06u l=500000u
X145 w_n1200_n1200# a_n50_n50# a_112_3350# w_n1200_n1200# sky130_fd_pr__nfet_g5v0d10v5 ad=0p pd=0u as=0p ps=0u w=4.38e+06u l=500000u
X146 a_112_3350# a_n50_n50# w_n1200_n1200# w_n1200_n1200# sky130_fd_pr__nfet_g5v0d10v5 ad=0p pd=0u as=0p ps=0u w=4.38e+06u l=500000u
X147 w_n1200_n1200# a_n50_n50# a_112_3350# w_n1200_n1200# sky130_fd_pr__nfet_g5v0d10v5 ad=0p pd=0u as=0p ps=0u w=4.38e+06u l=500000u
X148 w_n1200_n1200# a_n50_n50# a_112_3350# w_n1200_n1200# sky130_fd_pr__nfet_g5v0d10v5 ad=0p pd=0u as=0p ps=0u w=4.38e+06u l=500000u
X149 w_n1200_n1200# a_n50_n50# a_112_3350# w_n1200_n1200# sky130_fd_pr__nfet_g5v0d10v5 ad=0p pd=0u as=0p ps=0u w=4.38e+06u l=500000u
X150 w_n1200_n1200# a_n50_n50# a_112_3350# w_n1200_n1200# sky130_fd_pr__nfet_g5v0d10v5 ad=0p pd=0u as=0p ps=0u w=4.38e+06u l=500000u
X151 w_n1200_n1200# a_n50_n50# a_112_3350# w_n1200_n1200# sky130_fd_pr__nfet_g5v0d10v5 ad=0p pd=0u as=0p ps=0u w=4.38e+06u l=500000u
X152 a_112_3350# a_n50_n50# w_n1200_n1200# w_n1200_n1200# sky130_fd_pr__nfet_g5v0d10v5 ad=0p pd=0u as=0p ps=0u w=4.38e+06u l=500000u
X153 w_n1200_n1200# a_n50_n50# a_112_3350# w_n1200_n1200# sky130_fd_pr__nfet_g5v0d10v5 ad=0p pd=0u as=0p ps=0u w=4.38e+06u l=500000u
X154 w_n1200_n1200# a_n50_n50# a_112_3350# w_n1200_n1200# sky130_fd_pr__nfet_g5v0d10v5 ad=0p pd=0u as=0p ps=0u w=4.38e+06u l=500000u
X155 a_112_3350# a_n50_n50# w_n1200_n1200# w_n1200_n1200# sky130_fd_pr__nfet_g5v0d10v5 ad=0p pd=0u as=0p ps=0u w=4.38e+06u l=500000u
X156 w_n1200_n1200# a_n50_n50# a_112_3350# w_n1200_n1200# sky130_fd_pr__nfet_g5v0d10v5 ad=0p pd=0u as=0p ps=0u w=4.38e+06u l=500000u
X157 a_112_3350# a_n50_n50# w_n1200_n1200# w_n1200_n1200# sky130_fd_pr__nfet_g5v0d10v5 ad=0p pd=0u as=0p ps=0u w=4.38e+06u l=500000u
X158 w_n1200_n1200# a_n50_n50# a_112_3350# w_n1200_n1200# sky130_fd_pr__nfet_g5v0d10v5 ad=0p pd=0u as=0p ps=0u w=4.38e+06u l=500000u
X159 a_112_3350# a_n50_n50# w_n1200_n1200# w_n1200_n1200# sky130_fd_pr__nfet_g5v0d10v5 ad=0p pd=0u as=0p ps=0u w=4.38e+06u l=500000u
X160 w_n1200_n1200# a_n50_n50# a_112_3350# w_n1200_n1200# sky130_fd_pr__nfet_g5v0d10v5 ad=0p pd=0u as=0p ps=0u w=4.38e+06u l=500000u
X161 w_n1200_n1200# a_n50_n50# a_112_3350# w_n1200_n1200# sky130_fd_pr__nfet_g5v0d10v5 ad=0p pd=0u as=0p ps=0u w=4.38e+06u l=500000u
X162 w_n1200_n1200# a_n50_n50# a_112_3350# w_n1200_n1200# sky130_fd_pr__nfet_g5v0d10v5 ad=0p pd=0u as=0p ps=0u w=4.38e+06u l=500000u
X163 w_n1200_n1200# a_n50_n50# a_112_3350# w_n1200_n1200# sky130_fd_pr__nfet_g5v0d10v5 ad=0p pd=0u as=0p ps=0u w=4.38e+06u l=500000u
X164 a_112_3350# a_n50_n50# w_n1200_n1200# w_n1200_n1200# sky130_fd_pr__nfet_g5v0d10v5 ad=0p pd=0u as=0p ps=0u w=4.38e+06u l=500000u
X165 a_112_3350# a_n50_n50# w_n1200_n1200# w_n1200_n1200# sky130_fd_pr__nfet_g5v0d10v5 ad=0p pd=0u as=0p ps=0u w=4.38e+06u l=500000u
X166 w_n1200_n1200# a_n50_n50# a_112_3350# w_n1200_n1200# sky130_fd_pr__nfet_g5v0d10v5 ad=0p pd=0u as=0p ps=0u w=4.38e+06u l=500000u
X167 a_112_3350# a_n50_n50# w_n1200_n1200# w_n1200_n1200# sky130_fd_pr__nfet_g5v0d10v5 ad=0p pd=0u as=0p ps=0u w=4.38e+06u l=500000u
X168 w_n1200_n1200# a_n50_n50# a_112_3350# w_n1200_n1200# sky130_fd_pr__nfet_g5v0d10v5 ad=0p pd=0u as=0p ps=0u w=4.38e+06u l=500000u
X169 w_n1200_n1200# a_n50_n50# a_112_3350# w_n1200_n1200# sky130_fd_pr__nfet_g5v0d10v5 ad=0p pd=0u as=0p ps=0u w=4.38e+06u l=500000u
X170 a_112_3350# a_n50_n50# w_n1200_n1200# w_n1200_n1200# sky130_fd_pr__nfet_g5v0d10v5 ad=0p pd=0u as=0p ps=0u w=4.38e+06u l=500000u
X171 a_112_3350# a_n50_n50# w_n1200_n1200# w_n1200_n1200# sky130_fd_pr__nfet_g5v0d10v5 ad=0p pd=0u as=0p ps=0u w=4.38e+06u l=500000u
X172 w_n1200_n1200# a_n50_n50# a_112_3350# w_n1200_n1200# sky130_fd_pr__nfet_g5v0d10v5 ad=0p pd=0u as=0p ps=0u w=4.38e+06u l=500000u
X173 w_n1200_n1200# a_n50_n50# a_112_3350# w_n1200_n1200# sky130_fd_pr__nfet_g5v0d10v5 ad=0p pd=0u as=0p ps=0u w=4.38e+06u l=500000u
X174 a_112_3350# a_n50_n50# w_n1200_n1200# w_n1200_n1200# sky130_fd_pr__nfet_g5v0d10v5 ad=0p pd=0u as=0p ps=0u w=4.38e+06u l=500000u
X175 w_n1200_n1200# a_n50_n50# a_112_3350# w_n1200_n1200# sky130_fd_pr__nfet_g5v0d10v5 ad=0p pd=0u as=0p ps=0u w=4.38e+06u l=500000u
X176 a_112_3350# a_n50_n50# w_n1200_n1200# w_n1200_n1200# sky130_fd_pr__nfet_g5v0d10v5 ad=0p pd=0u as=0p ps=0u w=4.38e+06u l=500000u
X177 a_112_3350# a_n50_n50# w_n1200_n1200# w_n1200_n1200# sky130_fd_pr__nfet_g5v0d10v5 ad=0p pd=0u as=0p ps=0u w=4.38e+06u l=500000u
X178 a_112_3350# a_n50_n50# w_n1200_n1200# w_n1200_n1200# sky130_fd_pr__nfet_g5v0d10v5 ad=0p pd=0u as=0p ps=0u w=4.38e+06u l=500000u
X179 a_112_3350# a_n50_n50# w_n1200_n1200# w_n1200_n1200# sky130_fd_pr__nfet_g5v0d10v5 ad=0p pd=0u as=0p ps=0u w=4.38e+06u l=500000u
X180 w_n1200_n1200# a_n50_n50# a_112_3350# w_n1200_n1200# sky130_fd_pr__nfet_g5v0d10v5 ad=0p pd=0u as=0p ps=0u w=4.38e+06u l=500000u
X181 a_112_3350# a_n50_n50# w_n1200_n1200# w_n1200_n1200# sky130_fd_pr__nfet_g5v0d10v5 ad=0p pd=0u as=0p ps=0u w=4.38e+06u l=500000u
X182 w_n1200_n1200# a_n50_n50# a_112_3350# w_n1200_n1200# sky130_fd_pr__nfet_g5v0d10v5 ad=0p pd=0u as=0p ps=0u w=4.38e+06u l=500000u
X183 w_n1200_n1200# a_n50_n50# a_112_3350# w_n1200_n1200# sky130_fd_pr__nfet_g5v0d10v5 ad=0p pd=0u as=0p ps=0u w=4.38e+06u l=500000u
X184 a_112_3350# a_n50_n50# w_n1200_n1200# w_n1200_n1200# sky130_fd_pr__nfet_g5v0d10v5 ad=0p pd=0u as=0p ps=0u w=4.38e+06u l=500000u
X185 a_112_3350# a_n50_n50# w_n1200_n1200# w_n1200_n1200# sky130_fd_pr__nfet_g5v0d10v5 ad=0p pd=0u as=0p ps=0u w=4.38e+06u l=500000u
X186 a_112_3350# a_n50_n50# w_n1200_n1200# w_n1200_n1200# sky130_fd_pr__nfet_g5v0d10v5 ad=0p pd=0u as=0p ps=0u w=4.38e+06u l=500000u
X187 w_n1200_n1200# a_n50_n50# a_112_3350# w_n1200_n1200# sky130_fd_pr__nfet_g5v0d10v5 ad=0p pd=0u as=0p ps=0u w=4.38e+06u l=500000u
X188 a_112_3350# a_n50_n50# w_n1200_n1200# w_n1200_n1200# sky130_fd_pr__nfet_g5v0d10v5 ad=0p pd=0u as=0p ps=0u w=4.38e+06u l=500000u
X189 w_n1200_n1200# a_n50_n50# a_112_3350# w_n1200_n1200# sky130_fd_pr__nfet_g5v0d10v5 ad=0p pd=0u as=0p ps=0u w=4.38e+06u l=500000u
X190 a_112_3350# a_n50_n50# w_n1200_n1200# w_n1200_n1200# sky130_fd_pr__nfet_g5v0d10v5 ad=0p pd=0u as=0p ps=0u w=4.38e+06u l=500000u
X191 w_n1200_n1200# a_n50_n50# a_112_3350# w_n1200_n1200# sky130_fd_pr__nfet_g5v0d10v5 ad=0p pd=0u as=0p ps=0u w=4.38e+06u l=500000u
X192 a_112_3350# a_n50_n50# w_n1200_n1200# w_n1200_n1200# sky130_fd_pr__nfet_g5v0d10v5 ad=0p pd=0u as=0p ps=0u w=4.38e+06u l=500000u
X193 w_n1200_n1200# a_n50_n50# a_112_3350# w_n1200_n1200# sky130_fd_pr__nfet_g5v0d10v5 ad=0p pd=0u as=0p ps=0u w=4.38e+06u l=500000u
X194 a_112_3350# a_n50_n50# w_n1200_n1200# w_n1200_n1200# sky130_fd_pr__nfet_g5v0d10v5 ad=0p pd=0u as=0p ps=0u w=4.38e+06u l=500000u
X195 a_112_3350# a_n50_n50# w_n1200_n1200# w_n1200_n1200# sky130_fd_pr__nfet_g5v0d10v5 ad=0p pd=0u as=0p ps=0u w=4.38e+06u l=500000u
X196 w_n1200_n1200# a_n50_n50# a_112_3350# w_n1200_n1200# sky130_fd_pr__nfet_g5v0d10v5 ad=0p pd=0u as=0p ps=0u w=4.38e+06u l=500000u
X197 a_112_3350# a_n50_n50# w_n1200_n1200# w_n1200_n1200# sky130_fd_pr__nfet_g5v0d10v5 ad=0p pd=0u as=0p ps=0u w=4.38e+06u l=500000u
X198 a_112_3350# a_n50_n50# w_n1200_n1200# w_n1200_n1200# sky130_fd_pr__nfet_g5v0d10v5 ad=0p pd=0u as=0p ps=0u w=4.38e+06u l=500000u
X199 a_112_3350# a_n50_n50# w_n1200_n1200# w_n1200_n1200# sky130_fd_pr__nfet_g5v0d10v5 ad=0p pd=0u as=0p ps=0u w=4.38e+06u l=500000u
X200 w_n1200_n1200# a_n50_n50# a_112_3350# w_n1200_n1200# sky130_fd_pr__nfet_g5v0d10v5 ad=0p pd=0u as=0p ps=0u w=4.38e+06u l=500000u
X201 a_112_3350# a_n50_n50# w_n1200_n1200# w_n1200_n1200# sky130_fd_pr__nfet_g5v0d10v5 ad=0p pd=0u as=0p ps=0u w=4.38e+06u l=500000u
X202 a_112_3350# a_n50_n50# w_n1200_n1200# w_n1200_n1200# sky130_fd_pr__nfet_g5v0d10v5 ad=0p pd=0u as=0p ps=0u w=4.38e+06u l=500000u
X203 w_n1200_n1200# a_n50_n50# a_112_3350# w_n1200_n1200# sky130_fd_pr__nfet_g5v0d10v5 ad=0p pd=0u as=0p ps=0u w=4.38e+06u l=500000u
X204 a_112_3350# a_n50_n50# w_n1200_n1200# w_n1200_n1200# sky130_fd_pr__nfet_g5v0d10v5 ad=0p pd=0u as=0p ps=0u w=4.38e+06u l=500000u
X205 w_n1200_n1200# a_n50_n50# a_112_3350# w_n1200_n1200# sky130_fd_pr__nfet_g5v0d10v5 ad=0p pd=0u as=0p ps=0u w=4.38e+06u l=500000u
X206 a_112_3350# a_n50_n50# w_n1200_n1200# w_n1200_n1200# sky130_fd_pr__nfet_g5v0d10v5 ad=0p pd=0u as=0p ps=0u w=4.38e+06u l=500000u
X207 a_112_3350# a_n50_n50# w_n1200_n1200# w_n1200_n1200# sky130_fd_pr__nfet_g5v0d10v5 ad=0p pd=0u as=0p ps=0u w=4.38e+06u l=500000u
X208 w_n1200_n1200# a_n50_n50# a_112_3350# w_n1200_n1200# sky130_fd_pr__nfet_g5v0d10v5 ad=0p pd=0u as=0p ps=0u w=4.38e+06u l=500000u
X209 w_n1200_n1200# a_n50_n50# a_112_3350# w_n1200_n1200# sky130_fd_pr__nfet_g5v0d10v5 ad=0p pd=0u as=0p ps=0u w=4.38e+06u l=500000u
X210 a_112_3350# a_n50_n50# w_n1200_n1200# w_n1200_n1200# sky130_fd_pr__nfet_g5v0d10v5 ad=0p pd=0u as=0p ps=0u w=4.38e+06u l=500000u
X211 w_n1200_n1200# a_n50_n50# a_112_3350# w_n1200_n1200# sky130_fd_pr__nfet_g5v0d10v5 ad=0p pd=0u as=0p ps=0u w=4.38e+06u l=500000u
X212 a_112_3350# a_n50_n50# w_n1200_n1200# w_n1200_n1200# sky130_fd_pr__nfet_g5v0d10v5 ad=0p pd=0u as=0p ps=0u w=4.38e+06u l=500000u
X213 a_112_3350# a_n50_n50# w_n1200_n1200# w_n1200_n1200# sky130_fd_pr__nfet_g5v0d10v5 ad=0p pd=0u as=0p ps=0u w=4.38e+06u l=500000u
X214 w_n1200_n1200# a_n50_n50# a_112_3350# w_n1200_n1200# sky130_fd_pr__nfet_g5v0d10v5 ad=0p pd=0u as=0p ps=0u w=4.38e+06u l=500000u
X215 w_n1200_n1200# a_n50_n50# a_112_3350# w_n1200_n1200# sky130_fd_pr__nfet_g5v0d10v5 ad=0p pd=0u as=0p ps=0u w=4.38e+06u l=500000u
X216 w_n1200_n1200# a_n50_n50# a_112_3350# w_n1200_n1200# sky130_fd_pr__nfet_g5v0d10v5 ad=0p pd=0u as=0p ps=0u w=4.38e+06u l=500000u
X217 a_112_3350# a_n50_n50# w_n1200_n1200# w_n1200_n1200# sky130_fd_pr__nfet_g5v0d10v5 ad=0p pd=0u as=0p ps=0u w=4.38e+06u l=500000u
X218 w_n1200_n1200# a_n50_n50# a_112_3350# w_n1200_n1200# sky130_fd_pr__nfet_g5v0d10v5 ad=0p pd=0u as=0p ps=0u w=4.38e+06u l=500000u
X219 a_112_3350# a_n50_n50# w_n1200_n1200# w_n1200_n1200# sky130_fd_pr__nfet_g5v0d10v5 ad=0p pd=0u as=0p ps=0u w=4.38e+06u l=500000u
X220 w_n1200_n1200# a_n50_n50# a_112_3350# w_n1200_n1200# sky130_fd_pr__nfet_g5v0d10v5 ad=0p pd=0u as=0p ps=0u w=4.38e+06u l=500000u
X221 a_112_3350# a_n50_n50# w_n1200_n1200# w_n1200_n1200# sky130_fd_pr__nfet_g5v0d10v5 ad=0p pd=0u as=0p ps=0u w=4.38e+06u l=500000u
X222 a_112_3350# a_n50_n50# w_n1200_n1200# w_n1200_n1200# sky130_fd_pr__nfet_g5v0d10v5 ad=0p pd=0u as=0p ps=0u w=4.38e+06u l=500000u
X223 w_n1200_n1200# a_n50_n50# a_112_3350# w_n1200_n1200# sky130_fd_pr__nfet_g5v0d10v5 ad=0p pd=0u as=0p ps=0u w=4.38e+06u l=500000u
X224 a_112_3350# a_n50_n50# w_n1200_n1200# w_n1200_n1200# sky130_fd_pr__nfet_g5v0d10v5 ad=0p pd=0u as=0p ps=0u w=4.38e+06u l=500000u