* NGSPICE file created from user_analog_project_wrapper.ext - technology: sky130A

.subckt unit_cap c2_30_30# c1_30_30# m3_0_0#
X0 c1_30_30# m3_0_0# sky130_fd_pr__cap_mim_m3_1 l=3e+07u w=3e+07u
X1 c2_30_30# c1_30_30# sky130_fd_pr__cap_mim_m3_2 l=3e+07u w=3e+07u
.ends

.subckt stack_2um_1_5 m1_0_0#
R0 m1_0_0# m1_0_0# sky130_fd_pr__res_generic_m1 w=800000u l=0u
.ends

.subckt stack30um_1_5 m5_0_0#
Xstack_2um_1_5_40 m5_0_0# stack_2um_1_5
Xstack_2um_1_5_51 m5_0_0# stack_2um_1_5
Xstack_2um_1_5_50 m5_0_0# stack_2um_1_5
Xstack_2um_1_5_52 m5_0_0# stack_2um_1_5
Xstack_2um_1_5_41 m5_0_0# stack_2um_1_5
Xstack_2um_1_5_30 m5_0_0# stack_2um_1_5
Xstack_2um_1_5_20 m5_0_0# stack_2um_1_5
Xstack_2um_1_5_53 m5_0_0# stack_2um_1_5
Xstack_2um_1_5_42 m5_0_0# stack_2um_1_5
Xstack_2um_1_5_31 m5_0_0# stack_2um_1_5
Xstack_2um_1_5_10 m5_0_0# stack_2um_1_5
Xstack_2um_1_5_21 m5_0_0# stack_2um_1_5
Xstack_2um_1_5_54 m5_0_0# stack_2um_1_5
Xstack_2um_1_5_43 m5_0_0# stack_2um_1_5
Xstack_2um_1_5_32 m5_0_0# stack_2um_1_5
Xstack_2um_1_5_0 m5_0_0# stack_2um_1_5
Xstack_2um_1_5_55 m5_0_0# stack_2um_1_5
Xstack_2um_1_5_44 m5_0_0# stack_2um_1_5
Xstack_2um_1_5_33 m5_0_0# stack_2um_1_5
Xstack_2um_1_5_2 m5_0_0# stack_2um_1_5
Xstack_2um_1_5_1 m5_0_0# stack_2um_1_5
Xstack_2um_1_5_22 m5_0_0# stack_2um_1_5
Xstack_2um_1_5_11 m5_0_0# stack_2um_1_5
Xstack_2um_1_5_3 m5_0_0# stack_2um_1_5
Xstack_2um_1_5_23 m5_0_0# stack_2um_1_5
Xstack_2um_1_5_12 m5_0_0# stack_2um_1_5
Xstack_2um_1_5_34 m5_0_0# stack_2um_1_5
Xstack_2um_1_5_45 m5_0_0# stack_2um_1_5
Xstack_2um_1_5_24 m5_0_0# stack_2um_1_5
Xstack_2um_1_5_13 m5_0_0# stack_2um_1_5
Xstack_2um_1_5_35 m5_0_0# stack_2um_1_5
Xstack_2um_1_5_46 m5_0_0# stack_2um_1_5
Xstack_2um_1_5_4 m5_0_0# stack_2um_1_5
Xstack_2um_1_5_25 m5_0_0# stack_2um_1_5
Xstack_2um_1_5_14 m5_0_0# stack_2um_1_5
Xstack_2um_1_5_36 m5_0_0# stack_2um_1_5
Xstack_2um_1_5_47 m5_0_0# stack_2um_1_5
Xstack_2um_1_5_5 m5_0_0# stack_2um_1_5
Xstack_2um_1_5_48 m5_0_0# stack_2um_1_5
Xstack_2um_1_5_6 m5_0_0# stack_2um_1_5
Xstack_2um_1_5_38 m5_0_0# stack_2um_1_5
Xstack_2um_1_5_27 m5_0_0# stack_2um_1_5
Xstack_2um_1_5_49 m5_0_0# stack_2um_1_5
Xstack_2um_1_5_16 m5_0_0# stack_2um_1_5
Xstack_2um_1_5_37 m5_0_0# stack_2um_1_5
Xstack_2um_1_5_26 m5_0_0# stack_2um_1_5
Xstack_2um_1_5_15 m5_0_0# stack_2um_1_5
Xstack_2um_1_5_39 m5_0_0# stack_2um_1_5
Xstack_2um_1_5_28 m5_0_0# stack_2um_1_5
Xstack_2um_1_5_17 m5_0_0# stack_2um_1_5
Xstack_2um_1_5_7 m5_0_0# stack_2um_1_5
Xstack_2um_1_5_29 m5_0_0# stack_2um_1_5
Xstack_2um_1_5_18 m5_0_0# stack_2um_1_5
Xstack_2um_1_5_8 m5_0_0# stack_2um_1_5
Xstack_2um_1_5_9 m5_0_0# stack_2um_1_5
Xstack_2um_1_5_19 m5_0_0# stack_2um_1_5
.ends

.subckt power_pad_1_5 m5_0_0#
Xstack30um_1_5_29 m5_0_0# stack30um_1_5
Xstack30um_1_5_19 m5_0_0# stack30um_1_5
Xstack30um_1_5_18 m5_0_0# stack30um_1_5
Xstack30um_1_5_0 m5_0_0# stack30um_1_5
Xstack30um_1_5_1 m5_0_0# stack30um_1_5
Xstack30um_1_5_2 m5_0_0# stack30um_1_5
Xstack30um_1_5_3 m5_0_0# stack30um_1_5
Xstack30um_1_5_4 m5_0_0# stack30um_1_5
Xstack30um_1_5_5 m5_0_0# stack30um_1_5
Xstack30um_1_5_6 m5_0_0# stack30um_1_5
Xstack30um_1_5_8 m5_0_0# stack30um_1_5
Xstack30um_1_5_7 m5_0_0# stack30um_1_5
Xstack30um_1_5_9 m5_0_0# stack30um_1_5
Xstack30um_1_5_20 m5_0_0# stack30um_1_5
Xstack30um_1_5_21 m5_0_0# stack30um_1_5
Xstack30um_1_5_10 m5_0_0# stack30um_1_5
Xstack30um_1_5_11 m5_0_0# stack30um_1_5
Xstack30um_1_5_22 m5_0_0# stack30um_1_5
Xstack30um_1_5_23 m5_0_0# stack30um_1_5
Xstack30um_1_5_12 m5_0_0# stack30um_1_5
Xstack30um_1_5_24 m5_0_0# stack30um_1_5
Xstack30um_1_5_13 m5_0_0# stack30um_1_5
Xstack30um_1_5_14 m5_0_0# stack30um_1_5
Xstack30um_1_5_25 m5_0_0# stack30um_1_5
Xstack30um_1_5_26 m5_0_0# stack30um_1_5
Xstack30um_1_5_15 m5_0_0# stack30um_1_5
Xstack30um_1_5_27 m5_0_0# stack30um_1_5
Xstack30um_1_5_16 m5_0_0# stack30um_1_5
Xstack30um_1_5_17 m5_0_0# stack30um_1_5
Xstack30um_1_5_28 m5_0_0# stack30um_1_5
.ends

.subckt stack_2um_3_5 m3_0_0#
R0 m3_0_0# m3_0_0# sky130_fd_pr__res_generic_m3 w=800000u l=0u
.ends

.subckt stack30um_3_5 m5_0_0#
Xstack_2um_3_5_48 m5_0_0# stack_2um_3_5
Xstack_2um_3_5_6 m5_0_0# stack_2um_3_5
Xstack_2um_3_5_37 m5_0_0# stack_2um_3_5
Xstack_2um_3_5_26 m5_0_0# stack_2um_3_5
Xstack_2um_3_5_15 m5_0_0# stack_2um_3_5
Xstack_2um_3_5_38 m5_0_0# stack_2um_3_5
Xstack_2um_3_5_27 m5_0_0# stack_2um_3_5
Xstack_2um_3_5_49 m5_0_0# stack_2um_3_5
Xstack_2um_3_5_16 m5_0_0# stack_2um_3_5
Xstack_2um_3_5_7 m5_0_0# stack_2um_3_5
Xstack_2um_3_5_29 m5_0_0# stack_2um_3_5
Xstack_2um_3_5_18 m5_0_0# stack_2um_3_5
Xstack_2um_3_5_39 m5_0_0# stack_2um_3_5
Xstack_2um_3_5_28 m5_0_0# stack_2um_3_5
Xstack_2um_3_5_17 m5_0_0# stack_2um_3_5
Xstack_2um_3_5_8 m5_0_0# stack_2um_3_5
Xstack_2um_3_5_9 m5_0_0# stack_2um_3_5
Xstack_2um_3_5_19 m5_0_0# stack_2um_3_5
Xstack_2um_3_5_50 m5_0_0# stack_2um_3_5
Xstack_2um_3_5_40 m5_0_0# stack_2um_3_5
Xstack_2um_3_5_51 m5_0_0# stack_2um_3_5
Xstack_2um_3_5_20 m5_0_0# stack_2um_3_5
Xstack_2um_3_5_53 m5_0_0# stack_2um_3_5
Xstack_2um_3_5_42 m5_0_0# stack_2um_3_5
Xstack_2um_3_5_31 m5_0_0# stack_2um_3_5
Xstack_2um_3_5_52 m5_0_0# stack_2um_3_5
Xstack_2um_3_5_41 m5_0_0# stack_2um_3_5
Xstack_2um_3_5_30 m5_0_0# stack_2um_3_5
Xstack_2um_3_5_10 m5_0_0# stack_2um_3_5
Xstack_2um_3_5_21 m5_0_0# stack_2um_3_5
Xstack_2um_3_5_54 m5_0_0# stack_2um_3_5
Xstack_2um_3_5_43 m5_0_0# stack_2um_3_5
Xstack_2um_3_5_32 m5_0_0# stack_2um_3_5
Xstack_2um_3_5_0 m5_0_0# stack_2um_3_5
Xstack_2um_3_5_55 m5_0_0# stack_2um_3_5
Xstack_2um_3_5_44 m5_0_0# stack_2um_3_5
Xstack_2um_3_5_33 m5_0_0# stack_2um_3_5
Xstack_2um_3_5_1 m5_0_0# stack_2um_3_5
Xstack_2um_3_5_22 m5_0_0# stack_2um_3_5
Xstack_2um_3_5_11 m5_0_0# stack_2um_3_5
Xstack_2um_3_5_2 m5_0_0# stack_2um_3_5
Xstack_2um_3_5_23 m5_0_0# stack_2um_3_5
Xstack_2um_3_5_12 m5_0_0# stack_2um_3_5
Xstack_2um_3_5_34 m5_0_0# stack_2um_3_5
Xstack_2um_3_5_45 m5_0_0# stack_2um_3_5
Xstack_2um_3_5_3 m5_0_0# stack_2um_3_5
Xstack_2um_3_5_24 m5_0_0# stack_2um_3_5
Xstack_2um_3_5_13 m5_0_0# stack_2um_3_5
Xstack_2um_3_5_35 m5_0_0# stack_2um_3_5
Xstack_2um_3_5_46 m5_0_0# stack_2um_3_5
Xstack_2um_3_5_25 m5_0_0# stack_2um_3_5
Xstack_2um_3_5_14 m5_0_0# stack_2um_3_5
Xstack_2um_3_5_36 m5_0_0# stack_2um_3_5
Xstack_2um_3_5_47 m5_0_0# stack_2um_3_5
Xstack_2um_3_5_5 m5_0_0# stack_2um_3_5
Xstack_2um_3_5_4 m5_0_0# stack_2um_3_5
.ends

.subckt power_pad_3_5 m5_0_0#
Xstack30um_3_5_20 m5_0_0# stack30um_3_5
Xstack30um_3_5_21 m5_0_0# stack30um_3_5
Xstack30um_3_5_10 m5_0_0# stack30um_3_5
Xstack30um_3_5_23 m5_0_0# stack30um_3_5
Xstack30um_3_5_11 m5_0_0# stack30um_3_5
Xstack30um_3_5_22 m5_0_0# stack30um_3_5
Xstack30um_3_5_12 m5_0_0# stack30um_3_5
Xstack30um_3_5_24 m5_0_0# stack30um_3_5
Xstack30um_3_5_13 m5_0_0# stack30um_3_5
Xstack30um_3_5_14 m5_0_0# stack30um_3_5
Xstack30um_3_5_25 m5_0_0# stack30um_3_5
Xstack30um_3_5_26 m5_0_0# stack30um_3_5
Xstack30um_3_5_15 m5_0_0# stack30um_3_5
Xstack30um_3_5_27 m5_0_0# stack30um_3_5
Xstack30um_3_5_16 m5_0_0# stack30um_3_5
Xstack30um_3_5_17 m5_0_0# stack30um_3_5
Xstack30um_3_5_28 m5_0_0# stack30um_3_5
Xstack30um_3_5_29 m5_0_0# stack30um_3_5
Xstack30um_3_5_18 m5_0_0# stack30um_3_5
Xstack30um_3_5_19 m5_0_0# stack30um_3_5
Xstack30um_3_5_0 m5_0_0# stack30um_3_5
Xstack30um_3_5_2 m5_0_0# stack30um_3_5
Xstack30um_3_5_1 m5_0_0# stack30um_3_5
Xstack30um_3_5_3 m5_0_0# stack30um_3_5
Xstack30um_3_5_4 m5_0_0# stack30um_3_5
Xstack30um_3_5_5 m5_0_0# stack30um_3_5
Xstack30um_3_5_6 m5_0_0# stack30um_3_5
Xstack30um_3_5_7 m5_0_0# stack30um_3_5
Xstack30um_3_5_8 m5_0_0# stack30um_3_5
Xstack30um_3_5_9 m5_0_0# stack30um_3_5
.ends

.subckt nmos_drain a_0_212# dw_0_0# a_0_50# li_1022_1022# a_150_212# a_212_0# w_0_0#
X0 a_150_212# a_0_50# a_212_0# w_0_0# sky130_fd_pr__nfet_g5v0d10v5 ad=3.3792e+12p pd=3.668e+07u as=1.095e+12p ps=9.26e+06u w=4.38e+06u l=500000u
X1 a_150_212# a_0_50# a_0_212# w_0_0# sky130_fd_pr__nfet_g5v0d10v5 ad=0p pd=0u as=1.095e+12p ps=9.26e+06u w=4.38e+06u l=500000u
.ends

.subckt nmos_source li_0_0# a_0_212# dw_0_0# a_0_50# a_212_0# w_0_0#
X0 w_0_0# a_0_50# a_212_0# w_0_0# sky130_fd_pr__nfet_g5v0d10v5 ad=1.15372e+13p pd=3.22e+07u as=1.095e+12p ps=9.26e+06u w=4.38e+06u l=500000u
X1 w_0_0# a_0_50# a_0_212# w_0_0# sky130_fd_pr__nfet_g5v0d10v5 ad=0p pd=0u as=1.095e+12p ps=9.26e+06u w=4.38e+06u l=500000u
.ends

.subckt nmos_waffle_36x36 dw_n5900_n5900# a_8912_38400# a_n50_n50# a_112_3350# a_112_1150#
Xnmos_drain_7 a_8912_38400# dw_n5900_n5900# a_n50_n50# a_112_3350# a_112_3350# a_8912_38400#
+ a_8912_38400# nmos_drain
Xnmos_drain_543 a_8912_38400# dw_n5900_n5900# a_n50_n50# a_112_3350# a_112_3350# a_8912_38400#
+ a_8912_38400# nmos_drain
Xnmos_source_458 a_8912_38400# a_112_3350# dw_n5900_n5900# a_n50_n50# a_112_3350#
+ a_8912_38400# nmos_source
Xnmos_drain_576 a_8912_38400# dw_n5900_n5900# a_n50_n50# a_112_3350# a_112_3350# a_8912_38400#
+ a_8912_38400# nmos_drain
Xnmos_source_403 a_8912_38400# a_112_3350# dw_n5900_n5900# a_n50_n50# a_112_3350#
+ a_8912_38400# nmos_source
Xnmos_drain_521 a_8912_38400# dw_n5900_n5900# a_n50_n50# a_112_3350# a_112_3350# a_8912_38400#
+ a_8912_38400# nmos_drain
Xnmos_source_436 a_8912_38400# a_112_3350# dw_n5900_n5900# a_n50_n50# a_112_3350#
+ a_8912_38400# nmos_source
Xnmos_drain_554 a_8912_38400# dw_n5900_n5900# a_n50_n50# a_112_3350# a_112_3350# a_8912_38400#
+ a_8912_38400# nmos_drain
Xnmos_source_469 a_8912_38400# a_112_3350# dw_n5900_n5900# a_n50_n50# a_112_3350#
+ a_8912_38400# nmos_source
Xnmos_source_414 a_8912_38400# a_112_3350# dw_n5900_n5900# a_n50_n50# a_112_3350#
+ a_8912_38400# nmos_source
Xnmos_drain_510 a_8912_38400# dw_n5900_n5900# a_n50_n50# a_112_3350# a_112_3350# a_8912_38400#
+ a_8912_38400# nmos_drain
Xnmos_source_425 a_8912_38400# a_112_3350# dw_n5900_n5900# a_n50_n50# a_112_3350#
+ a_8912_38400# nmos_source
Xnmos_drain_565 a_8912_38400# dw_n5900_n5900# a_n50_n50# a_112_3350# a_112_3350# a_8912_38400#
+ a_8912_38400# nmos_drain
Xnmos_source_447 a_8912_38400# a_112_3350# dw_n5900_n5900# a_n50_n50# a_112_3350#
+ a_8912_38400# nmos_source
Xnmos_drain_532 a_8912_38400# dw_n5900_n5900# a_n50_n50# a_112_3350# a_112_3350# a_8912_38400#
+ a_8912_38400# nmos_drain
Xnmos_source_9 a_8912_38400# a_112_3350# dw_n5900_n5900# a_n50_n50# a_112_3350# a_8912_38400#
+ nmos_source
Xnmos_drain_373 a_8912_38400# dw_n5900_n5900# a_n50_n50# a_112_3350# a_112_3350# a_8912_38400#
+ a_8912_38400# nmos_drain
Xnmos_source_288 a_8912_38400# a_112_3350# dw_n5900_n5900# a_n50_n50# a_112_3350#
+ a_8912_38400# nmos_source
Xnmos_source_200 a_8912_38400# a_112_3350# dw_n5900_n5900# a_n50_n50# a_112_3350#
+ a_8912_38400# nmos_source
Xnmos_source_233 a_8912_38400# a_112_3350# dw_n5900_n5900# a_n50_n50# a_112_3350#
+ a_8912_38400# nmos_source
Xnmos_drain_351 a_8912_38400# dw_n5900_n5900# a_n50_n50# a_112_3350# a_112_3350# a_8912_38400#
+ a_8912_38400# nmos_drain
Xnmos_source_266 a_8912_38400# a_112_3350# dw_n5900_n5900# a_n50_n50# a_112_3350#
+ a_8912_38400# nmos_source
Xnmos_drain_384 a_8912_38400# dw_n5900_n5900# a_n50_n50# a_112_3350# a_112_3350# a_8912_38400#
+ a_8912_38400# nmos_drain
Xnmos_source_299 a_8912_38400# a_112_3350# dw_n5900_n5900# a_n50_n50# a_112_3350#
+ a_8912_38400# nmos_source
Xnmos_source_211 a_8912_38400# a_112_3350# dw_n5900_n5900# a_n50_n50# a_112_3350#
+ a_8912_38400# nmos_source
Xnmos_source_244 a_8912_38400# a_112_3350# dw_n5900_n5900# a_n50_n50# a_112_3350#
+ a_8912_38400# nmos_source
Xnmos_drain_340 a_8912_38400# dw_n5900_n5900# a_n50_n50# a_112_3350# a_112_3350# a_8912_38400#
+ a_8912_38400# nmos_drain
Xnmos_source_255 a_8912_38400# a_112_3350# dw_n5900_n5900# a_n50_n50# a_112_3350#
+ a_8912_38400# nmos_source
Xnmos_source_222 a_8912_38400# a_112_3350# dw_n5900_n5900# a_n50_n50# a_112_3350#
+ a_8912_38400# nmos_source
Xnmos_drain_395 a_8912_38400# dw_n5900_n5900# a_n50_n50# a_112_3350# a_112_3350# a_8912_38400#
+ a_8912_38400# nmos_drain
Xnmos_source_277 a_8912_38400# a_112_3350# dw_n5900_n5900# a_n50_n50# a_112_3350#
+ a_8912_38400# nmos_source
Xnmos_drain_362 a_8912_38400# dw_n5900_n5900# a_n50_n50# a_112_3350# a_112_3350# a_8912_38400#
+ a_8912_38400# nmos_drain
Xnmos_drain_181 a_8912_38400# dw_n5900_n5900# a_n50_n50# a_112_3350# a_112_3350# a_8912_38400#
+ a_8912_38400# nmos_drain
Xnmos_drain_170 a_8912_38400# dw_n5900_n5900# a_n50_n50# a_112_3350# a_112_3350# a_8912_38400#
+ a_8912_38400# nmos_drain
Xnmos_drain_192 a_8912_38400# dw_n5900_n5900# a_n50_n50# a_112_3350# a_112_3350# a_8912_38400#
+ a_8912_38400# nmos_drain
Xnmos_drain_81 a_8912_38400# dw_n5900_n5900# a_n50_n50# a_112_3350# a_112_3350# a_8912_38400#
+ a_8912_38400# nmos_drain
Xnmos_drain_92 a_8912_38400# dw_n5900_n5900# a_n50_n50# a_112_3350# a_112_3350# a_8912_38400#
+ a_8912_38400# nmos_drain
Xnmos_drain_70 a_8912_38400# dw_n5900_n5900# a_n50_n50# a_112_3350# a_112_3350# a_8912_38400#
+ a_8912_38400# nmos_drain
Xnmos_drain_8 a_8912_38400# dw_n5900_n5900# a_n50_n50# a_112_3350# a_112_3350# a_8912_38400#
+ a_8912_38400# nmos_drain
Xnmos_drain_577 a_8912_38400# dw_n5900_n5900# a_n50_n50# a_112_3350# a_112_3350# a_8912_38400#
+ a_8912_38400# nmos_drain
Xnmos_source_404 a_8912_38400# a_112_3350# dw_n5900_n5900# a_n50_n50# a_112_3350#
+ a_8912_38400# nmos_source
Xnmos_drain_522 a_8912_38400# dw_n5900_n5900# a_n50_n50# a_112_3350# a_112_3350# a_8912_38400#
+ a_8912_38400# nmos_drain
Xnmos_source_437 a_8912_38400# a_112_3350# dw_n5900_n5900# a_n50_n50# a_112_3350#
+ a_8912_38400# nmos_source
Xnmos_drain_555 a_8912_38400# dw_n5900_n5900# a_n50_n50# a_112_3350# a_112_3350# a_8912_38400#
+ a_8912_38400# nmos_drain
Xnmos_drain_500 a_8912_38400# dw_n5900_n5900# a_n50_n50# a_112_3350# a_112_3350# a_8912_38400#
+ a_8912_38400# nmos_drain
Xnmos_source_415 a_8912_38400# a_112_3350# dw_n5900_n5900# a_n50_n50# a_112_3350#
+ a_8912_38400# nmos_source
Xnmos_drain_533 a_8912_38400# dw_n5900_n5900# a_n50_n50# a_112_3350# a_112_3350# a_8912_38400#
+ a_8912_38400# nmos_drain
Xnmos_source_448 a_8912_38400# a_112_3350# dw_n5900_n5900# a_n50_n50# a_112_3350#
+ a_8912_38400# nmos_source
Xnmos_drain_544 a_8912_38400# dw_n5900_n5900# a_n50_n50# a_112_3350# a_112_3350# a_8912_38400#
+ a_8912_38400# nmos_drain
Xnmos_source_459 a_8912_38400# a_112_3350# dw_n5900_n5900# a_n50_n50# a_112_3350#
+ a_8912_38400# nmos_source
Xnmos_source_426 a_8912_38400# a_112_3350# dw_n5900_n5900# a_n50_n50# a_112_3350#
+ a_8912_38400# nmos_source
Xnmos_drain_511 a_8912_38400# dw_n5900_n5900# a_n50_n50# a_112_3350# a_112_3350# a_8912_38400#
+ a_8912_38400# nmos_drain
Xnmos_drain_566 a_8912_38400# dw_n5900_n5900# a_n50_n50# a_112_3350# a_112_3350# a_8912_38400#
+ a_8912_38400# nmos_drain
Xnmos_source_201 a_8912_38400# a_112_3350# dw_n5900_n5900# a_n50_n50# a_112_3350#
+ a_8912_38400# nmos_source
Xnmos_source_234 a_8912_38400# a_112_3350# dw_n5900_n5900# a_n50_n50# a_112_3350#
+ a_8912_38400# nmos_source
Xnmos_drain_352 a_8912_38400# dw_n5900_n5900# a_n50_n50# a_112_3350# a_112_3350# a_8912_38400#
+ a_8912_38400# nmos_drain
Xnmos_source_267 a_8912_38400# a_112_3350# dw_n5900_n5900# a_n50_n50# a_112_3350#
+ a_8912_38400# nmos_source
Xnmos_drain_385 a_8912_38400# dw_n5900_n5900# a_n50_n50# a_112_3350# a_112_3350# a_8912_38400#
+ a_8912_38400# nmos_drain
Xnmos_source_212 a_8912_38400# a_112_3350# dw_n5900_n5900# a_n50_n50# a_112_3350#
+ a_8912_38400# nmos_source
Xnmos_drain_330 a_8912_38400# dw_n5900_n5900# a_n50_n50# a_112_3350# a_112_3350# a_8912_38400#
+ a_8912_38400# nmos_drain
Xnmos_source_245 a_8912_38400# a_112_3350# dw_n5900_n5900# a_n50_n50# a_112_3350#
+ a_8912_38400# nmos_source
Xnmos_drain_363 a_8912_38400# dw_n5900_n5900# a_n50_n50# a_112_3350# a_112_3350# a_8912_38400#
+ a_8912_38400# nmos_drain
Xnmos_source_278 a_8912_38400# a_112_3350# dw_n5900_n5900# a_n50_n50# a_112_3350#
+ a_8912_38400# nmos_source
Xnmos_drain_374 a_8912_38400# dw_n5900_n5900# a_n50_n50# a_112_3350# a_112_3350# a_8912_38400#
+ a_8912_38400# nmos_drain
Xnmos_source_289 a_8912_38400# a_112_3350# dw_n5900_n5900# a_n50_n50# a_112_3350#
+ a_8912_38400# nmos_source
Xnmos_source_256 a_8912_38400# a_112_3350# dw_n5900_n5900# a_n50_n50# a_112_3350#
+ a_8912_38400# nmos_source
Xnmos_drain_341 a_8912_38400# dw_n5900_n5900# a_n50_n50# a_112_3350# a_112_3350# a_8912_38400#
+ a_8912_38400# nmos_drain
Xnmos_source_223 a_8912_38400# a_112_3350# dw_n5900_n5900# a_n50_n50# a_112_3350#
+ a_8912_38400# nmos_source
Xnmos_drain_396 a_8912_38400# dw_n5900_n5900# a_n50_n50# a_112_3350# a_112_3350# a_8912_38400#
+ a_8912_38400# nmos_drain
Xnmos_drain_160 a_8912_38400# dw_n5900_n5900# a_n50_n50# a_112_3350# a_112_3350# a_8912_38400#
+ a_8912_38400# nmos_drain
Xnmos_drain_171 a_8912_38400# dw_n5900_n5900# a_n50_n50# a_112_3350# a_112_3350# a_8912_38400#
+ a_8912_38400# nmos_drain
Xnmos_drain_82 a_8912_38400# dw_n5900_n5900# a_n50_n50# a_112_3350# a_112_3350# a_8912_38400#
+ a_8912_38400# nmos_drain
Xnmos_drain_182 a_8912_38400# dw_n5900_n5900# a_n50_n50# a_112_3350# a_112_3350# a_8912_38400#
+ a_8912_38400# nmos_drain
Xnmos_drain_60 a_8912_38400# dw_n5900_n5900# a_n50_n50# a_112_3350# a_112_3350# a_8912_38400#
+ a_8912_38400# nmos_drain
Xnmos_drain_93 a_8912_38400# dw_n5900_n5900# a_n50_n50# a_112_3350# a_112_3350# a_8912_38400#
+ a_8912_38400# nmos_drain
Xnmos_drain_193 a_8912_38400# dw_n5900_n5900# a_n50_n50# a_112_3350# a_112_3350# a_8912_38400#
+ a_8912_38400# nmos_drain
Xnmos_drain_71 a_8912_38400# dw_n5900_n5900# a_n50_n50# a_112_3350# a_112_3350# a_8912_38400#
+ a_8912_38400# nmos_drain
Xnmos_drain_9 a_8912_38400# dw_n5900_n5900# a_n50_n50# a_112_3350# a_112_3350# a_8912_38400#
+ a_8912_38400# nmos_drain
Xnmos_source_405 a_8912_38400# a_112_3350# dw_n5900_n5900# a_n50_n50# a_112_3350#
+ a_8912_38400# nmos_source
Xnmos_drain_523 a_8912_38400# dw_n5900_n5900# a_n50_n50# a_112_3350# a_112_3350# a_8912_38400#
+ a_8912_38400# nmos_drain
Xnmos_source_438 a_8912_38400# a_112_3350# dw_n5900_n5900# a_n50_n50# a_112_3350#
+ a_8912_38400# nmos_source
Xnmos_drain_556 a_8912_38400# dw_n5900_n5900# a_n50_n50# a_112_3350# a_112_3350# a_8912_38400#
+ a_8912_38400# nmos_drain
Xnmos_drain_501 a_8912_38400# dw_n5900_n5900# a_n50_n50# a_112_3350# a_112_3350# a_8912_38400#
+ a_8912_38400# nmos_drain
Xnmos_source_416 a_8912_38400# a_112_3350# dw_n5900_n5900# a_n50_n50# a_112_3350#
+ a_8912_38400# nmos_source
Xnmos_drain_534 a_8912_38400# dw_n5900_n5900# a_n50_n50# a_112_3350# a_112_3350# a_8912_38400#
+ a_8912_38400# nmos_drain
Xnmos_source_449 a_8912_38400# a_112_3350# dw_n5900_n5900# a_n50_n50# a_112_3350#
+ a_8912_38400# nmos_source
Xnmos_drain_567 a_8912_38400# dw_n5900_n5900# a_n50_n50# a_112_3350# a_112_3350# a_8912_38400#
+ a_8912_38400# nmos_drain
Xnmos_drain_545 a_8912_38400# dw_n5900_n5900# a_n50_n50# a_112_3350# a_112_3350# a_8912_38400#
+ a_8912_38400# nmos_drain
Xnmos_source_427 a_8912_38400# a_112_3350# dw_n5900_n5900# a_n50_n50# a_112_3350#
+ a_8912_38400# nmos_source
Xnmos_drain_512 a_8912_38400# dw_n5900_n5900# a_n50_n50# a_112_3350# a_112_3350# a_8912_38400#
+ a_8912_38400# nmos_drain
Xnmos_source_202 a_8912_38400# a_112_3350# dw_n5900_n5900# a_n50_n50# a_112_3350#
+ a_8912_38400# nmos_source
Xnmos_drain_320 a_8912_38400# dw_n5900_n5900# a_n50_n50# a_112_3350# a_112_3350# a_8912_38400#
+ a_8912_38400# nmos_drain
Xnmos_source_235 a_8912_38400# a_112_3350# dw_n5900_n5900# a_n50_n50# a_112_3350#
+ a_8912_38400# nmos_source
Xnmos_drain_353 a_8912_38400# dw_n5900_n5900# a_n50_n50# a_112_3350# a_112_3350# a_8912_38400#
+ a_8912_38400# nmos_drain
Xnmos_source_268 a_8912_38400# a_112_3350# dw_n5900_n5900# a_n50_n50# a_112_3350#
+ a_8912_38400# nmos_source
Xnmos_drain_386 a_8912_38400# dw_n5900_n5900# a_n50_n50# a_112_3350# a_112_3350# a_8912_38400#
+ a_8912_38400# nmos_drain
Xnmos_source_213 a_8912_38400# a_112_3350# dw_n5900_n5900# a_n50_n50# a_112_3350#
+ a_8912_38400# nmos_source
Xnmos_drain_331 a_8912_38400# dw_n5900_n5900# a_n50_n50# a_112_3350# a_112_3350# a_8912_38400#
+ a_8912_38400# nmos_drain
Xnmos_source_246 a_8912_38400# a_112_3350# dw_n5900_n5900# a_n50_n50# a_112_3350#
+ a_8912_38400# nmos_source
Xnmos_drain_364 a_8912_38400# dw_n5900_n5900# a_n50_n50# a_112_3350# a_112_3350# a_8912_38400#
+ a_8912_38400# nmos_drain
Xnmos_source_279 a_8912_38400# a_112_3350# dw_n5900_n5900# a_n50_n50# a_112_3350#
+ a_8912_38400# nmos_source
Xnmos_drain_397 a_8912_38400# dw_n5900_n5900# a_n50_n50# a_112_3350# a_112_3350# a_8912_38400#
+ a_8912_38400# nmos_drain
Xnmos_drain_375 a_8912_38400# dw_n5900_n5900# a_n50_n50# a_112_3350# a_112_3350# a_8912_38400#
+ a_8912_38400# nmos_drain
Xnmos_source_257 a_8912_38400# a_112_3350# dw_n5900_n5900# a_n50_n50# a_112_3350#
+ a_8912_38400# nmos_source
Xnmos_drain_342 a_8912_38400# dw_n5900_n5900# a_n50_n50# a_112_3350# a_112_3350# a_8912_38400#
+ a_8912_38400# nmos_drain
Xnmos_source_224 a_8912_38400# a_112_3350# dw_n5900_n5900# a_n50_n50# a_112_3350#
+ a_8912_38400# nmos_source
Xnmos_drain_50 a_8912_38400# dw_n5900_n5900# a_n50_n50# a_112_3350# a_112_3350# a_8912_38400#
+ a_8912_38400# nmos_drain
Xnmos_drain_83 a_8912_38400# dw_n5900_n5900# a_n50_n50# a_112_3350# a_112_3350# a_8912_38400#
+ a_8912_38400# nmos_drain
Xnmos_drain_150 a_8912_38400# dw_n5900_n5900# a_n50_n50# a_112_3350# a_112_3350# a_8912_38400#
+ a_8912_38400# nmos_drain
Xnmos_drain_183 a_8912_38400# dw_n5900_n5900# a_n50_n50# a_112_3350# a_112_3350# a_8912_38400#
+ a_8912_38400# nmos_drain
Xnmos_drain_61 a_8912_38400# dw_n5900_n5900# a_n50_n50# a_112_3350# a_112_3350# a_8912_38400#
+ a_8912_38400# nmos_drain
Xnmos_drain_94 a_8912_38400# dw_n5900_n5900# a_n50_n50# a_112_3350# a_112_3350# a_8912_38400#
+ a_8912_38400# nmos_drain
Xnmos_drain_161 a_8912_38400# dw_n5900_n5900# a_n50_n50# a_112_3350# a_112_3350# a_8912_38400#
+ a_8912_38400# nmos_drain
Xnmos_drain_194 a_8912_38400# dw_n5900_n5900# a_n50_n50# a_112_3350# a_112_3350# a_8912_38400#
+ a_8912_38400# nmos_drain
Xnmos_drain_172 a_8912_38400# dw_n5900_n5900# a_n50_n50# a_112_3350# a_112_3350# a_8912_38400#
+ a_8912_38400# nmos_drain
Xnmos_drain_72 a_8912_38400# dw_n5900_n5900# a_n50_n50# a_112_3350# a_112_3350# a_8912_38400#
+ a_8912_38400# nmos_drain
Xnmos_source_406 a_8912_38400# a_112_3350# dw_n5900_n5900# a_n50_n50# a_112_3350#
+ a_8912_38400# nmos_source
Xnmos_drain_524 a_8912_38400# dw_n5900_n5900# a_n50_n50# a_112_3350# a_112_3350# a_8912_38400#
+ a_8912_38400# nmos_drain
Xnmos_drain_502 a_8912_38400# dw_n5900_n5900# a_n50_n50# a_112_3350# a_112_3350# a_8912_38400#
+ a_8912_38400# nmos_drain
Xnmos_source_417 a_8912_38400# a_112_3350# dw_n5900_n5900# a_n50_n50# a_112_3350#
+ a_8912_38400# nmos_source
Xnmos_drain_535 a_8912_38400# dw_n5900_n5900# a_n50_n50# a_112_3350# a_112_3350# a_8912_38400#
+ a_8912_38400# nmos_drain
Xnmos_drain_546 a_8912_38400# dw_n5900_n5900# a_n50_n50# a_112_3350# a_112_3350# a_8912_38400#
+ a_8912_38400# nmos_drain
Xnmos_source_428 a_8912_38400# a_112_3350# dw_n5900_n5900# a_n50_n50# a_112_3350#
+ a_8912_38400# nmos_source
Xnmos_drain_513 a_8912_38400# dw_n5900_n5900# a_n50_n50# a_112_3350# a_112_3350# a_8912_38400#
+ a_8912_38400# nmos_drain
Xnmos_source_439 a_8912_38400# a_112_3350# dw_n5900_n5900# a_n50_n50# a_112_3350#
+ a_8912_38400# nmos_source
Xnmos_drain_557 a_8912_38400# dw_n5900_n5900# a_n50_n50# a_112_3350# a_112_3350# a_8912_38400#
+ a_8912_38400# nmos_drain
Xnmos_drain_568 a_8912_38400# dw_n5900_n5900# a_n50_n50# a_112_3350# a_112_3350# a_8912_38400#
+ a_8912_38400# nmos_drain
Xnmos_source_203 a_8912_38400# a_112_3350# dw_n5900_n5900# a_n50_n50# a_112_3350#
+ a_8912_38400# nmos_source
Xnmos_drain_321 a_8912_38400# dw_n5900_n5900# a_n50_n50# a_112_3350# a_112_3350# a_8912_38400#
+ a_8912_38400# nmos_drain
Xnmos_source_236 a_8912_38400# a_112_3350# dw_n5900_n5900# a_n50_n50# a_112_3350#
+ a_8912_38400# nmos_source
Xnmos_drain_354 a_8912_38400# dw_n5900_n5900# a_n50_n50# a_112_3350# a_112_3350# a_8912_38400#
+ a_8912_38400# nmos_drain
Xnmos_source_269 a_8912_38400# a_112_3350# dw_n5900_n5900# a_n50_n50# a_112_3350#
+ a_8912_38400# nmos_source
Xnmos_drain_387 a_8912_38400# dw_n5900_n5900# a_n50_n50# a_112_3350# a_112_3350# a_8912_38400#
+ a_8912_38400# nmos_drain
Xnmos_source_214 a_8912_38400# a_112_3350# dw_n5900_n5900# a_n50_n50# a_112_3350#
+ a_8912_38400# nmos_source
Xnmos_drain_332 a_8912_38400# dw_n5900_n5900# a_n50_n50# a_112_3350# a_112_3350# a_8912_38400#
+ a_8912_38400# nmos_drain
Xnmos_source_247 a_8912_38400# a_112_3350# dw_n5900_n5900# a_n50_n50# a_112_3350#
+ a_8912_38400# nmos_source
Xnmos_drain_365 a_8912_38400# dw_n5900_n5900# a_n50_n50# a_112_3350# a_112_3350# a_8912_38400#
+ a_8912_38400# nmos_drain
Xnmos_drain_398 a_8912_38400# dw_n5900_n5900# a_n50_n50# a_112_3350# a_112_3350# a_8912_38400#
+ a_8912_38400# nmos_drain
Xnmos_drain_376 a_8912_38400# dw_n5900_n5900# a_n50_n50# a_112_3350# a_112_3350# a_8912_38400#
+ a_8912_38400# nmos_drain
Xnmos_source_258 a_8912_38400# a_112_3350# dw_n5900_n5900# a_n50_n50# a_112_3350#
+ a_8912_38400# nmos_source
Xnmos_drain_343 a_8912_38400# dw_n5900_n5900# a_n50_n50# a_112_3350# a_112_3350# a_8912_38400#
+ a_8912_38400# nmos_drain
Xnmos_source_225 a_8912_38400# a_112_3350# dw_n5900_n5900# a_n50_n50# a_112_3350#
+ a_8912_38400# nmos_source
Xnmos_drain_310 a_8912_38400# dw_n5900_n5900# a_n50_n50# a_112_3350# a_112_3350# a_8912_38400#
+ a_8912_38400# nmos_drain
Xnmos_drain_151 a_8912_38400# dw_n5900_n5900# a_n50_n50# a_112_3350# a_112_3350# a_8912_38400#
+ a_8912_38400# nmos_drain
Xnmos_drain_184 a_8912_38400# dw_n5900_n5900# a_n50_n50# a_112_3350# a_112_3350# a_8912_38400#
+ a_8912_38400# nmos_drain
Xnmos_drain_162 a_8912_38400# dw_n5900_n5900# a_n50_n50# a_112_3350# a_112_3350# a_8912_38400#
+ a_8912_38400# nmos_drain
Xnmos_drain_195 a_8912_38400# dw_n5900_n5900# a_n50_n50# a_112_3350# a_112_3350# a_8912_38400#
+ a_8912_38400# nmos_drain
Xnmos_drain_173 a_8912_38400# dw_n5900_n5900# a_n50_n50# a_112_3350# a_112_3350# a_8912_38400#
+ a_8912_38400# nmos_drain
Xnmos_drain_140 a_8912_38400# dw_n5900_n5900# a_n50_n50# a_112_3350# a_112_3350# a_8912_38400#
+ a_8912_38400# nmos_drain
Xnmos_drain_84 a_8912_38400# dw_n5900_n5900# a_n50_n50# a_112_3350# a_112_3350# a_8912_38400#
+ a_8912_38400# nmos_drain
Xnmos_drain_62 a_8912_38400# dw_n5900_n5900# a_n50_n50# a_112_3350# a_112_3350# a_8912_38400#
+ a_8912_38400# nmos_drain
Xnmos_drain_95 a_8912_38400# dw_n5900_n5900# a_n50_n50# a_112_3350# a_112_3350# a_8912_38400#
+ a_8912_38400# nmos_drain
Xnmos_drain_40 a_8912_38400# dw_n5900_n5900# a_n50_n50# a_112_3350# a_112_3350# a_8912_38400#
+ a_8912_38400# nmos_drain
Xnmos_drain_51 a_8912_38400# dw_n5900_n5900# a_n50_n50# a_112_3350# a_112_3350# a_8912_38400#
+ a_8912_38400# nmos_drain
Xnmos_drain_73 a_8912_38400# dw_n5900_n5900# a_n50_n50# a_112_3350# a_112_3350# a_8912_38400#
+ a_8912_38400# nmos_drain
Xnmos_source_407 a_8912_38400# a_112_3350# dw_n5900_n5900# a_n50_n50# a_112_3350#
+ a_8912_38400# nmos_source
Xnmos_drain_525 a_8912_38400# dw_n5900_n5900# a_n50_n50# a_112_3350# a_112_3350# a_8912_38400#
+ a_8912_38400# nmos_drain
Xnmos_drain_558 a_8912_38400# dw_n5900_n5900# a_n50_n50# a_112_3350# a_112_3350# a_8912_38400#
+ a_8912_38400# nmos_drain
Xnmos_drain_503 a_8912_38400# dw_n5900_n5900# a_n50_n50# a_112_3350# a_112_3350# a_8912_38400#
+ a_8912_38400# nmos_drain
Xnmos_source_418 a_8912_38400# a_112_3350# dw_n5900_n5900# a_n50_n50# a_112_3350#
+ a_8912_38400# nmos_source
Xnmos_drain_536 a_8912_38400# dw_n5900_n5900# a_n50_n50# a_112_3350# a_112_3350# a_8912_38400#
+ a_8912_38400# nmos_drain
Xnmos_drain_569 a_8912_38400# dw_n5900_n5900# a_n50_n50# a_112_3350# a_112_3350# a_8912_38400#
+ a_8912_38400# nmos_drain
Xnmos_drain_547 a_8912_38400# dw_n5900_n5900# a_n50_n50# a_112_3350# a_112_3350# a_8912_38400#
+ a_8912_38400# nmos_drain
Xnmos_source_429 a_8912_38400# a_112_3350# dw_n5900_n5900# a_n50_n50# a_112_3350#
+ a_8912_38400# nmos_source
Xnmos_drain_514 a_8912_38400# dw_n5900_n5900# a_n50_n50# a_112_3350# a_112_3350# a_8912_38400#
+ a_8912_38400# nmos_drain
Xnmos_drain_322 a_8912_38400# dw_n5900_n5900# a_n50_n50# a_112_3350# a_112_3350# a_8912_38400#
+ a_8912_38400# nmos_drain
Xnmos_source_237 a_8912_38400# a_112_3350# dw_n5900_n5900# a_n50_n50# a_112_3350#
+ a_8912_38400# nmos_source
Xnmos_drain_355 a_8912_38400# dw_n5900_n5900# a_n50_n50# a_112_3350# a_112_3350# a_8912_38400#
+ a_8912_38400# nmos_drain
Xnmos_drain_388 a_8912_38400# dw_n5900_n5900# a_n50_n50# a_112_3350# a_112_3350# a_8912_38400#
+ a_8912_38400# nmos_drain
Xnmos_drain_300 a_8912_38400# dw_n5900_n5900# a_n50_n50# a_112_3350# a_112_3350# a_8912_38400#
+ a_8912_38400# nmos_drain
Xnmos_source_215 a_8912_38400# a_112_3350# dw_n5900_n5900# a_n50_n50# a_112_3350#
+ a_8912_38400# nmos_source
Xnmos_drain_333 a_8912_38400# dw_n5900_n5900# a_n50_n50# a_112_3350# a_112_3350# a_8912_38400#
+ a_8912_38400# nmos_drain
Xnmos_source_248 a_8912_38400# a_112_3350# dw_n5900_n5900# a_n50_n50# a_112_3350#
+ a_8912_38400# nmos_source
Xnmos_drain_366 a_8912_38400# dw_n5900_n5900# a_n50_n50# a_112_3350# a_112_3350# a_8912_38400#
+ a_8912_38400# nmos_drain
Xnmos_drain_399 a_8912_38400# dw_n5900_n5900# a_n50_n50# a_112_3350# a_112_3350# a_8912_38400#
+ a_8912_38400# nmos_drain
Xnmos_drain_311 a_8912_38400# dw_n5900_n5900# a_n50_n50# a_112_3350# a_112_3350# a_8912_38400#
+ a_8912_38400# nmos_drain
Xnmos_source_226 a_8912_38400# a_112_3350# dw_n5900_n5900# a_n50_n50# a_112_3350#
+ a_8912_38400# nmos_source
Xnmos_source_204 a_8912_38400# a_112_3350# dw_n5900_n5900# a_n50_n50# a_112_3350#
+ a_8912_38400# nmos_source
Xnmos_drain_377 a_8912_38400# dw_n5900_n5900# a_n50_n50# a_112_3350# a_112_3350# a_8912_38400#
+ a_8912_38400# nmos_drain
Xnmos_source_259 a_8912_38400# a_112_3350# dw_n5900_n5900# a_n50_n50# a_112_3350#
+ a_8912_38400# nmos_source
Xnmos_drain_344 a_8912_38400# dw_n5900_n5900# a_n50_n50# a_112_3350# a_112_3350# a_8912_38400#
+ a_8912_38400# nmos_drain
Xnmos_drain_152 a_8912_38400# dw_n5900_n5900# a_n50_n50# a_112_3350# a_112_3350# a_8912_38400#
+ a_8912_38400# nmos_drain
Xnmos_drain_185 a_8912_38400# dw_n5900_n5900# a_n50_n50# a_112_3350# a_112_3350# a_8912_38400#
+ a_8912_38400# nmos_drain
Xnmos_drain_130 a_8912_38400# dw_n5900_n5900# a_n50_n50# a_112_3350# a_112_3350# a_8912_38400#
+ a_8912_38400# nmos_drain
Xnmos_drain_163 a_8912_38400# dw_n5900_n5900# a_n50_n50# a_112_3350# a_112_3350# a_8912_38400#